# generated using pymatgen
data_Cs2O
_symmetry_space_group_name_H-M   'P 1'
_cell_length_a   4.26154132
_cell_length_b   4.26154132
_cell_length_c   22.05088213
_cell_angle_alpha   90.00000000
_cell_angle_beta   90.00000000
_cell_angle_gamma   120.00000000
_symmetry_Int_Tables_number   1
_chemical_formula_structural   Cs2O
_chemical_formula_sum   'Cs6 O3'
_cell_volume   346.80871865
_cell_formula_units_Z   3
loop_
 _symmetry_equiv_pos_site_id
 _symmetry_equiv_pos_as_xyz
  1  'x, y, z'
loop_
 _atom_site_type_symbol
 _atom_site_label
 _atom_site_symmetry_multiplicity
 _atom_site_fract_x
 _atom_site_fract_y
 _atom_site_fract_z
 _atom_site_occupancy
  Cs  Cs0  1  0.333333  0.666667  0.930985  1.0
  Cs  Cs1  1  0.000000  0.000000  0.735682  1.0
  Cs  Cs2  1  0.000000  0.000000  0.264318  1.0
  Cs  Cs3  1  0.666667  0.333333  0.069015  1.0
  Cs  Cs4  1  0.666667  0.333333  0.597651  1.0
  Cs  Cs5  1  0.333333  0.666667  0.402349  1.0
  O  O6  1  0.000000  0.000000  0.000000  1.0
  O  O7  1  0.666667  0.333333  0.333333  1.0
  O  O8  1  0.333333  0.666667  0.666667  1.0
